
 OpenBabel09282515193D

 31 32  0  0  0  0  0  0  0  0999 V2000
    0.9325   -0.0035    0.0737 C   0  0  0  0  0  0  0  0  0  0  0  0
    0.4258    0.4175   -1.2962 C   0  0  0  0  0  0  0  0  0  0  0  0
    0.9325   -0.5583   -2.3457 C   0  0  0  0  0  0  0  0  0  0  0  0
    0.1066   -1.2160   -3.0531 O   0  0  0  0  0  0  0  0  0  0  0  0
    2.3285   -0.7350   -2.5357 O   0  0  0  0  0  0  0  0  0  0  0  0
   -1.0942    0.4175   -1.2962 C   0  0  0  0  0  0  0  0  0  0  0  0
   -1.7703   -0.7678   -1.2985 C   0  0  0  0  0  0  0  0  0  0  0  0
   -3.1569   -0.7478   -1.3088 C   0  0  0  0  0  0  0  0  0  0  0  0
   -3.8477    0.4536   -1.3284 C   0  0  0  0  0  0  0  0  0  0  0  0
   -5.3669    0.4825   -1.3700 C   0  0  0  0  0  0  0  0  0  0  0  0
   -6.0861   -0.1073   -0.3437 C   0  0  0  0  0  0  0  0  0  0  0  0
   -7.4612   -0.2763   -0.6307 C   0  0  0  0  0  0  0  0  0  0  0  0
   -8.1103    0.3610   -1.5881 C   0  0  0  0  0  0  0  0  0  0  0  0
   -7.3427    0.9813   -2.5344 C   0  0  0  0  0  0  0  0  0  0  0  0
   -5.9794    1.0728   -2.3896 C   0  0  0  0  0  0  0  0  0  0  0  0
   -3.1336    1.5929   -1.3096 C   0  0  0  0  0  0  0  0  0  0  0  0
   -3.8047    2.7722   -1.3249 F   0  0  0  0  0  0  0  0  0  0  0  0
   -1.7810    1.6215   -1.2937 C   0  0  0  0  0  0  0  0  0  0  0  0
    0.5758   -0.9868    0.2992 H   0  0  0  0  0  0  0  0  0  0  0  0
    0.5758    0.6834    0.8125 H   0  0  0  0  0  0  0  0  0  0  0  0
    2.0025   -0.0035    0.0737 H   0  0  0  0  0  0  0  0  0  0  0  0
    0.7825    1.4008   -1.5216 H   0  0  0  0  0  0  0  0  0  0  0  0
    2.6619   -1.3769   -3.2262 H   0  0  0  0  0  0  0  0  0  0  0  0
   -1.2396   -1.6968   -1.2926 H   0  0  0  0  0  0  0  0  0  0  0  0
   -3.6994   -1.6701   -1.3015 H   0  0  0  0  0  0  0  0  0  0  0  0
   -5.6420   -0.4080    0.5823 H   0  0  0  0  0  0  0  0  0  0  0  0
   -8.0137   -0.9685   -0.0303 H   0  0  0  0  0  0  0  0  0  0  0  0
   -9.1794    0.3904   -1.6215 H   0  0  0  0  0  0  0  0  0  0  0  0
   -7.8104    1.4015   -3.4002 H   0  0  0  0  0  0  0  0  0  0  0  0
   -5.4061    1.6247   -3.1049 H   0  0  0  0  0  0  0  0  0  0  0  0
   -1.2535    2.5523   -1.2797 H   0  0  0  0  0  0  0  0  0  0  0  0
  1  2  1  0  0  0  0
  1 19  1  0  0  0  0
  1 20  1  0  0  0  0
  1 21  1  0  0  0  0
  2  3  1  0  0  0  0
  2  6  1  0  0  0  0
  2 22  1  0  0  0  0
  3  4  2  0  0  0  0
  3  5  1  0  0  0  0
  5 23  1  0  0  0  0
  6  7  1  0  0  0  0
  6 18  2  0  0  0  0
  7  8  2  0  0  0  0
  7 24  1  0  0  0  0
  8  9  1  0  0  0  0
  8 25  1  0  0  0  0
  9 10  1  0  0  0  0
  9 16  2  0  0  0  0
 10 11  1  0  0  0  0
 10 15  2  0  0  0  0
 11 12  2  0  0  0  0
 11 26  1  0  0  0  0
 12 13  1  0  0  0  0
 12 27  1  0  0  0  0
 13 14  2  0  0  0  0
 13 28  1  0  0  0  0
 14 15  1  0  0  0  0
 14 29  1  0  0  0  0
 15 30  1  0  0  0  0
 16 17  1  0  0  0  0
 16 18  1  0  0  0  0
 18 31  1  0  0  0  0
M  END
