
 OpenBabel09282515193D

 71 75  0  0  1  0  0  0  0  0999 V2000
   -8.8139   -6.9410   -5.0916 C   0  0  0  0  0  0  0  0  0  0  0  0
   -8.9930   -5.7850   -6.0799 C   0  0  0  0  0  0  0  0  0  0  0  0
   -9.2060   -6.0456   -7.4271 C   0  0  0  0  0  0  0  0  0  0  0  0
   -9.3875   -5.0144   -8.3459 C   0  0  0  0  0  0  0  0  0  0  0  0
   -9.3526   -3.7136   -7.9215 C   0  0  0  0  0  0  0  0  0  0  0  0
   -9.1232   -3.3873   -6.5591 C   0  0  0  0  0  0  0  0  0  0  0  0
   -9.0591   -2.0490   -6.0139 C   0  0  0  0  0  0  0  0  0  0  0  0
   -8.8366   -1.8639   -4.6924 C   0  0  0  0  0  0  0  0  0  0  0  0
   -8.6913   -3.0008   -3.8332 C   0  0  0  0  0  0  0  0  0  0  0  0
   -8.4808   -2.7857   -2.3944 N   0  0  0  0  0  0  0  0  0  0  0  0
   -9.3212   -2.2685   -1.3067 C   0  0  0  0  0  0  0  0  0  0  0  0
   -8.6249   -1.1295   -0.5939 C   0  0  0  0  0  0  0  0  0  0  0  0
   -7.2757   -1.5792   -0.0376 C   0  0  0  0  0  0  0  0  0  0  0  0
   -6.5294   -0.3665    0.4943 C   0  0  0  0  0  0  0  0  0  0  0  0
   -6.1965   -0.3124    1.7196 O   0  0  0  0  0  0  0  0  0  0  0  0
   -6.1929    0.7437   -0.4085 N   0  0  0  0  0  0  0  0  0  0  0  0
   -6.5826    0.6812   -1.8245 C   0  0  1  0  0  0  0  0  0  0  0  0
   -5.4915    0.8223   -2.9058 C   0  0  0  0  0  0  0  0  0  0  0  0
   -4.8390   -0.5668   -3.0454 C   0  0  0  0  0  0  0  0  0  0  0  0
   -5.8900   -1.5804   -2.4230 C   0  0  0  0  0  0  0  0  0  0  0  0
   -7.1435   -0.7351   -2.1517 C   0  0  1  0  0  0  0  0  0  0  0  0
   -7.9959   -1.2995   -1.0269 C   0  0  0  0  0  0  0  0  0  0  0  0
   -9.1949   -0.3940   -0.7965 C   0  0  0  0  0  0  0  0  0  0  0  0
  -10.0225   -0.3156   -2.0689 C   0  0  0  0  0  0  0  0  0  0  0  0
  -10.2921    0.9224   -2.6286 C   0  0  0  0  0  0  0  0  0  0  0  0
  -11.2959    0.8946   -3.6255 C   0  0  0  0  0  0  0  0  0  0  0  0
  -11.7014   -0.1962   -4.2497 C   0  0  0  0  0  0  0  0  0  0  0  0
  -11.3448   -1.3888   -3.6840 C   0  0  0  0  0  0  0  0  0  0  0  0
  -10.4712   -1.4351   -2.6245 C   0  0  0  0  0  0  0  0  0  0  0  0
  -10.0143   -2.7800   -2.0833 C   0  0  0  0  0  0  0  0  0  0  0  0
  -10.4402   -3.8551   -2.6107 O   0  0  0  0  0  0  0  0  0  0  0  0
   -9.1117   -2.8353   -0.9885 O   0  0  0  0  0  0  0  0  0  0  0  0
   -6.4428   -2.2336   -1.1384 C   0  0  0  0  0  0  0  0  0  0  0  0
   -7.2411   -3.3224   -1.8361 C   0  0  0  0  0  0  0  0  0  0  0  0
   -8.7413   -4.2475   -4.3002 N   0  0  0  0  0  0  0  0  0  0  0  0
   -8.9505   -4.4236   -5.6323 C   0  0  0  0  0  0  0  0  0  0  0  0
   -7.8567   -6.8619   -4.6198 H   0  0  0  0  0  0  0  0  0  0  0  0
   -9.5825   -6.8972   -4.3484 H   0  0  0  0  0  0  0  0  0  0  0  0
   -8.8773   -7.8716   -5.6159 H   0  0  0  0  0  0  0  0  0  0  0  0
   -9.2314   -7.0600   -7.7667 H   0  0  0  0  0  0  0  0  0  0  0  0
   -9.5533   -5.2382   -9.3790 H   0  0  0  0  0  0  0  0  0  0  0  0
   -9.5013   -2.9267   -8.6310 H   0  0  0  0  0  0  0  0  0  0  0  0
   -9.1879   -1.2037   -6.6571 H   0  0  0  0  0  0  0  0  0  0  0  0
   -8.7696   -0.8741   -4.2914 H   0  0  0  0  0  0  0  0  0  0  0  0
   -9.5025   -3.0560   -0.6054 H   0  0  0  0  0  0  0  0  0  0  0  0
  -10.2460   -1.9162   -1.7135 H   0  0  0  0  0  0  0  0  0  0  0  0
   -9.2405   -0.8080    0.2201 H   0  0  0  0  0  0  0  0  0  0  0  0
   -8.4694   -0.3269   -1.2842 H   0  0  0  0  0  0  0  0  0  0  0  0
   -7.4358   -2.2845    0.7510 H   0  0  0  0  0  0  0  0  0  0  0  0
   -5.6922    1.5575   -0.0515 H   0  0  0  0  0  0  0  0  0  0  0  0
   -7.2527    1.5080   -1.9348 H   0  0  0  0  0  0  0  0  0  0  0  0
   -5.9056    1.1529   -3.8354 H   0  0  0  0  0  0  0  0  0  0  0  0
   -4.7627    1.5454   -2.6045 H   0  0  0  0  0  0  0  0  0  0  0  0
   -4.6093   -0.8018   -4.0637 H   0  0  0  0  0  0  0  0  0  0  0  0
   -3.9158   -0.6043   -2.5059 H   0  0  0  0  0  0  0  0  0  0  0  0
   -6.0928   -2.4020   -3.0777 H   0  0  0  0  0  0  0  0  0  0  0  0
   -5.5148   -1.9997   -1.5129 H   0  0  0  0  0  0  0  0  0  0  0  0
   -7.7747   -0.7036   -3.0151 H   0  0  0  0  0  0  0  0  0  0  0  0
   -8.3346   -2.2790   -1.2930 H   0  0  0  0  0  0  0  0  0  0  0  0
   -7.4133   -1.3547   -0.1311 H   0  0  0  0  0  0  0  0  0  0  0  0
   -9.7949   -0.7913   -0.0046 H   0  0  0  0  0  0  0  0  0  0  0  0
   -8.8562    0.5854   -0.5303 H   0  0  0  0  0  0  0  0  0  0  0  0
   -9.7872    1.8185   -2.3338 H   0  0  0  0  0  0  0  0  0  0  0  0
  -11.7585    1.8218   -3.8921 H   0  0  0  0  0  0  0  0  0  0  0  0
  -12.2780   -0.1493   -5.1499 H   0  0  0  0  0  0  0  0  0  0  0  0
  -11.7518   -2.2991   -4.0720 H   0  0  0  0  0  0  0  0  0  0  0  0
   -8.8111   -3.7201   -0.6325 H   0  0  0  0  0  0  0  0  0  0  0  0
   -6.1738   -1.4881   -1.8573 H   0  0  0  0  0  0  0  0  0  0  0  0
   -5.5640   -2.6641   -0.7057 H   0  0  0  0  0  0  0  0  0  0  0  0
   -6.6507   -3.7194   -2.6353 H   0  0  0  0  0  0  0  0  0  0  0  0
   -7.4788   -4.0897   -1.1292 H   0  0  0  0  0  0  0  0  0  0  0  0
  1  2  1  0  0  0  0
  1 37  1  0  0  0  0
  1 38  1  0  0  0  0
  1 39  1  0  0  0  0
  2  3  1  0  0  0  0
  2 36  2  0  0  0  0
  3  4  2  0  0  0  0
  3 40  1  0  0  0  0
  4  5  1  0  0  0  0
  4 41  1  0  0  0  0
  5  6  2  0  0  0  0
  5 42  1  0  0  0  0
  6  7  1  0  0  0  0
  6 36  1  0  0  0  0
  7  8  2  0  0  0  0
  7 43  1  0  0  0  0
  8  9  1  0  0  0  0
  8 44  1  0  0  0  0
  9 10  1  0  0  0  0
  9 35  2  0  0  0  0
 10 11  1  0  0  0  0
 10 34  1  0  0  0  0
 11 12  1  0  0  0  0
 11 45  1  0  0  0  0
 11 46  1  0  0  0  0
 12 13  1  0  0  0  0
 12 47  1  0  0  0  0
 12 48  1  0  0  0  0
 13 14  1  0  0  0  0
 13 33  1  0  0  0  0
 13 49  1  0  0  0  0
 14 15  2  0  0  0  0
 14 16  1  0  0  0  0
 16 50  1  0  0  0  0
 17 18  1  0  0  0  0
 17 21  1  0  0  0  0
 17 51  1  6  0  0  0
 17 16  1  0  0  0  0
 18 19  1  0  0  0  0
 18 52  1  0  0  0  0
 18 53  1  0  0  0  0
 19 20  1  0  0  0  0
 19 54  1  0  0  0  0
 19 55  1  0  0  0  0
 20 21  1  0  0  0  0
 20 56  1  0  0  0  0
 20 57  1  0  0  0  0
 21 22  1  0  0  0  0
 21 58  1  6  0  0  0
 22 23  1  0  0  0  0
 22 59  1  0  0  0  0
 22 60  1  0  0  0  0
 23 24  1  0  0  0  0
 23 61  1  0  0  0  0
 23 62  1  0  0  0  0
 24 25  1  0  0  0  0
 24 29  2  0  0  0  0
 25 26  2  0  0  0  0
 25 63  1  0  0  0  0
 26 27  1  0  0  0  0
 26 64  1  0  0  0  0
 27 28  2  0  0  0  0
 27 65  1  0  0  0  0
 28 29  1  0  0  0  0
 28 66  1  0  0  0  0
 29 30  1  0  0  0  0
 30 31  2  0  0  0  0
 30 32  1  0  0  0  0
 32 67  1  0  0  0  0
 33 34  1  0  0  0  0
 33 68  1  0  0  0  0
 33 69  1  0  0  0  0
 34 70  1  0  0  0  0
 34 71  1  0  0  0  0
 35 36  1  0  0  0  0
M  END
