
 OpenBabel09282515193D

 85 89  0  0  1  0  0  0  0  0999 V2000
    0.9476   -0.0838    0.0153 C   0  0  0  0  0  0  0  0  0  0  0  0
    0.4409    1.1949    0.6624 C   0  0  0  0  0  0  0  0  0  0  0  0
   -0.2898    1.9962   -0.0004 O   0  0  0  0  0  0  0  0  0  0  0  0
    0.7839    1.4941    2.0075 O   0  0  0  0  0  0  0  0  0  0  0  0
    0.3106    2.6886    2.6120 C   0  0  2  0  0  0  0  0  0  0  0  0
   -0.6525    3.1290    1.5130 C   0  0  0  0  0  0  0  0  0  0  0  0
    0.0986    3.7201    0.3350 C   0  0  0  0  0  0  0  0  0  0  0  0
    1.1570    4.6446    0.7337 C   0  0  1  0  0  0  0  0  0  0  0  0
    1.1739    4.7160    2.2520 C   0  0  0  0  0  0  0  0  0  0  0  0
    1.9857    4.3957    1.9101 C   0  0  1  0  0  0  0  0  0  0  0  0
    2.6969    5.6804    2.3462 C   0  0  0  0  0  0  0  0  0  0  0  0
    3.4214    6.2861    1.1402 C   0  0  0  0  0  0  0  0  0  0  0  0
    2.4305    6.5292    0.0864 C   0  0  2  0  0  0  0  0  0  0  0  0
    3.1797    6.4813   -1.2352 C   0  0  0  0  0  0  0  0  0  0  0  0
    1.3682    5.7259   -0.0458 C   0  0  2  0  0  0  0  0  0  0  0  0
    0.2409    6.6427    0.4003 C   0  0  0  0  0  0  0  0  0  0  0  0
   -0.6683    6.9783   -0.4219 O   0  0  0  0  0  0  0  0  0  0  0  0
    0.2009    7.1582    1.8296 C   0  0  0  0  0  0  0  0  0  0  0  0
    1.1741    6.7990    2.7097 C   0  0  0  0  0  0  0  0  0  0  0  0
    2.3626    5.8877    2.3965 C   0  0  2  0  0  0  0  0  0  0  0  0
    2.1997    5.3503    0.9714 C   0  0  1  0  0  0  0  0  0  0  0  0
    2.3415    6.4916   -0.0223 C   0  0  0  0  0  0  0  0  0  0  0  0
    3.2829    4.3005    0.7050 C   0  0  2  0  0  0  0  0  0  0  0  0
    3.1178    3.7168   -0.6887 C   0  0  0  0  0  0  0  0  0  0  0  0
    3.1551    3.2450    1.7155 C   0  0  0  0  0  0  0  0  0  0  0  0
    2.7268    3.5346    2.9500 C   0  0  0  0  0  0  0  0  0  0  0  0
    2.4257    4.7867    3.3538 C   0  0  1  0  0  0  0  0  0  0  0  0
    1.4679    5.6842    2.5875 C   0  0  0  0  0  0  0  0  0  0  0  0
    2.2045    5.0016    4.7816 C   0  0  0  0  0  0  0  0  0  0  0  0
    1.1151    6.0172    5.0703 C   0  0  0  0  0  0  0  0  0  0  0  0
    1.2563    7.2429    4.1720 C   0  0  1  0  0  0  0  0  0  0  0  0
    2.5975    7.9108    4.4276 C   0  0  0  0  0  0  0  0  0  0  0  0
    1.1246    3.8995    3.0736 C   0  0  2  0  0  0  0  0  0  0  0  0
    2.0198    3.4987    4.2348 C   0  0  0  0  0  0  0  0  0  0  0  0
    0.1858    5.0064    3.5250 C   0  0  0  0  0  0  0  0  0  0  0  0
   -0.7164    5.2335    2.6592 O   0  0  0  0  0  0  0  0  0  0  0  0
    0.0798    5.5680    4.8249 O   0  0  0  0  0  0  0  0  0  0  0  0
    0.5909   -0.1393   -0.9920 H   0  0  0  0  0  0  0  0  0  0  0  0
    0.5909   -0.9283    0.5670 H   0  0  0  0  0  0  0  0  0  0  0  0
    2.0176   -0.0838    0.0153 H   0  0  0  0  0  0  0  0  0  0  0  0
    0.0346    2.4074    3.6068 H   0  0  0  0  0  0  0  0  0  0  0  0
   -1.1971    2.2725    1.1743 H   0  0  0  0  0  0  0  0  0  0  0  0
   -1.3199    3.8663    1.9078 H   0  0  0  0  0  0  0  0  0  0  0  0
    0.5638    2.9091   -0.1854 H   0  0  0  0  0  0  0  0  0  0  0  0
   -0.5981    4.2468   -0.2831 H   0  0  0  0  0  0  0  0  0  0  0  0
    0.2260    5.0669    2.6031 H   0  0  0  0  0  0  0  0  0  0  0  0
    1.3644    3.7423    2.6527 H   0  0  0  0  0  0  0  0  0  0  0  0
    1.9430    5.3889    2.5689 H   0  0  0  0  0  0  0  0  0  0  0  0
    2.7093    3.6517    1.6499 H   0  0  0  0  0  0  0  0  0  0  0  0
    1.9799    6.3789    2.7243 H   0  0  0  0  0  0  0  0  0  0  0  0
    3.4068    5.4540    3.1141 H   0  0  0  0  0  0  0  0  0  0  0  0
    3.8992    7.2024    1.4175 H   0  0  0  0  0  0  0  0  0  0  0  0
    4.1673    5.6055    0.7862 H   0  0  0  0  0  0  0  0  0  0  0  0
    3.4851    5.4756   -1.4359 H   0  0  0  0  0  0  0  0  0  0  0  0
    2.5389    6.8230   -2.0211 H   0  0  0  0  0  0  0  0  0  0  0  0
    4.0426    7.1116   -1.1791 H   0  0  0  0  0  0  0  0  0  0  0  0
    1.3989    5.3615   -1.0513 H   0  0  0  0  0  0  0  0  0  0  0  0
   -0.5927    7.8036    2.1436 H   0  0  0  0  0  0  0  0  0  0  0  0
    3.2753    6.4410    2.4728 H   0  0  0  0  0  0  0  0  0  0  0  0
    1.2324    4.9061    0.8620 H   0  0  0  0  0  0  0  0  0  0  0  0
    3.2268    6.4188   -0.6189 H   0  0  0  0  0  0  0  0  0  0  0  0
    1.4800    6.4397   -0.6548 H   0  0  0  0  0  0  0  0  0  0  0  0
    2.3418    7.4231    0.5042 H   0  0  0  0  0  0  0  0  0  0  0  0
    4.2503    4.7526    0.7735 H   0  0  0  0  0  0  0  0  0  0  0  0
    3.2074    4.4973   -1.4152 H   0  0  0  0  0  0  0  0  0  0  0  0
    3.8763    2.9817   -0.8596 H   0  0  0  0  0  0  0  0  0  0  0  0
    2.1536    3.2606   -0.7724 H   0  0  0  0  0  0  0  0  0  0  0  0
    2.3690    2.6327    1.3256 H   0  0  0  0  0  0  0  0  0  0  0  0
    4.1242    2.8044    1.8228 H   0  0  0  0  0  0  0  0  0  0  0  0
    1.7612    3.0736    2.9524 H   0  0  0  0  0  0  0  0  0  0  0  0
    3.4901    3.1872    3.6146 H   0  0  0  0  0  0  0  0  0  0  0  0
    0.4603    5.4339    2.8463 H   0  0  0  0  0  0  0  0  0  0  0  0
    1.6576    6.7065    2.8402 H   0  0  0  0  0  0  0  0  0  0  0  0
    1.6115    5.5441    1.5364 H   0  0  0  0  0  0  0  0  0  0  0  0
    3.1152    5.3867    5.1904 H   0  0  0  0  0  0  0  0  0  0  0  0
    1.9271    4.0692    5.2271 H   0  0  0  0  0  0  0  0  0  0  0  0
    1.2032    6.3303    6.0897 H   0  0  0  0  0  0  0  0  0  0  0  0
    0.1608    5.5651    4.8976 H   0  0  0  0  0  0  0  0  0  0  0  0
    3.3862    7.2176    4.2217 H   0  0  0  0  0  0  0  0  0  0  0  0
    2.6978    8.7648    3.7907 H   0  0  0  0  0  0  0  0  0  0  0  0
    2.6527    8.2203    5.4504 H   0  0  0  0  0  0  0  0  0  0  0  0
    1.8964    4.2095    5.0250 H   0  0  0  0  0  0  0  0  0  0  0  0
    1.7163    2.5308    4.5751 H   0  0  0  0  0  0  0  0  0  0  0  0
    3.0481    3.4672    3.9408 H   0  0  0  0  0  0  0  0  0  0  0  0
   -0.7048    6.1421    5.0591 H   0  0  0  0  0  0  0  0  0  0  0  0
  1  2  1  0  0  0  0
  1 38  1  0  0  0  0
  1 39  1  0  0  0  0
  1 40  1  0  0  0  0
  2  3  2  0  0  0  0
  2  4  1  0  0  0  0
  4  5  1  0  0  0  0
  5  6  1  0  0  0  0
  5 33  1  0  0  0  0
  5 41  1  1  0  0  0
  6  7  1  0  0  0  0
  6 42  1  0  0  0  0
  6 43  1  0  0  0  0
  7  8  1  0  0  0  0
  7 44  1  0  0  0  0
  7 45  1  0  0  0  0
  8  9  1  1  0  0  0
  8 10  1  0  0  0  0
  8 15  1  0  0  0  0
  9 46  1  0  0  0  0
  9 47  1  0  0  0  0
  9 48  1  0  0  0  0
 10 11  1  0  0  0  0
 10 33  1  0  0  0  0
 10 49  1  6  0  0  0
 11 12  1  0  0  0  0
 11 50  1  0  0  0  0
 11 51  1  0  0  0  0
 12 13  1  0  0  0  0
 12 52  1  0  0  0  0
 12 53  1  0  0  0  0
 13 14  1  1  0  0  0
 13 15  1  0  0  0  0
 13 31  1  0  0  0  0
 14 54  1  0  0  0  0
 14 55  1  0  0  0  0
 14 56  1  0  0  0  0
 15 16  1  0  0  0  0
 15 57  1  6  0  0  0
 16 17  2  0  0  0  0
 16 18  1  0  0  0  0
 18 19  2  0  0  0  0
 18 58  1  0  0  0  0
 19 20  1  0  0  0  0
 19 31  1  0  0  0  0
 20 21  1  0  0  0  0
 20 27  1  0  0  0  0
 20 59  1  1  0  0  0
 21 23  1  0  0  0  0
 21 60  1  6  0  0  0
 21 22  1  0  0  0  0
 22 61  1  0  0  0  0
 22 62  1  0  0  0  0
 22 63  1  0  0  0  0
 23 24  1  0  0  0  0
 23 25  1  0  0  0  0
 23 64  1  1  0  0  0
 24 65  1  0  0  0  0
 24 66  1  0  0  0  0
 24 67  1  0  0  0  0
 25 26  1  0  0  0  0
 25 68  1  0  0  0  0
 25 69  1  0  0  0  0
 26 27  1  0  0  0  0
 26 70  1  0  0  0  0
 26 71  1  0  0  0  0
 27 28  1  1  0  0  0
 27 29  1  0  0  0  0
 28 72  1  0  0  0  0
 28 73  1  0  0  0  0
 28 74  1  0  0  0  0
 29 30  1  0  0  0  0
 29 75  1  0  0  0  0
 29 76  1  0  0  0  0
 30 31  1  0  0  0  0
 30 77  1  0  0  0  0
 30 78  1  0  0  0  0
 31 32  1  1  0  0  0
 32 79  1  0  0  0  0
 32 80  1  0  0  0  0
 32 81  1  0  0  0  0
 33 35  1  1  0  0  0
 33 34  1  0  0  0  0
 34 82  1  0  0  0  0
 34 83  1  0  0  0  0
 34 84  1  0  0  0  0
 35 36  2  0  0  0  0
 35 37  1  0  0  0  0
 37 85  1  0  0  0  0
M  END
