
 OpenBabel09282515193D

 40 42  0  0  0  0  0  0  0  0999 V2000
    2.4920    0.0040   -0.0140 C   0  0  0  0  0  0  0  0  0  0  0  0
    0.9910   -0.0050    0.0130 C   0  0  0  0  0  0  0  0  0  0  0  0
    0.2580   -1.1970    0.0060 C   0  0  0  0  0  0  0  0  0  0  0  0
   -1.1080   -1.2020    0.0010 C   0  0  0  0  0  0  0  0  0  0  0  0
   -1.7990    0.0100   -0.0130 C   0  0  0  0  0  0  0  0  0  0  0  0
   -3.3187    0.0139   -0.0449 C   0  0  0  0  0  0  0  0  0  0  0  0
   -4.0999    0.5623   -1.0070 C   0  0  0  0  0  0  0  0  0  0  0  0
   -5.3791    0.3200   -0.6311 C   0  0  0  0  0  0  0  0  0  0  0  0
   -6.6326    0.7317   -1.3859 C   0  0  0  0  0  0  0  0  0  0  0  0
   -7.3343   -0.3522   -1.7047 F   0  0  0  0  0  0  0  0  0  0  0  0
   -7.3711    1.5280   -0.6181 F   0  0  0  0  0  0  0  0  0  0  0  0
   -6.2892    1.3797   -2.4955 F   0  0  0  0  0  0  0  0  0  0  0  0
   -5.3363   -0.3320    0.4986 N   0  0  0  0  0  0  0  0  0  0  0  0
   -4.1119   -0.5103    0.8491 N   0  0  0  0  0  0  0  0  0  0  0  0
   -3.6726   -1.1997    2.0708 C   0  0  0  0  0  0  0  0  0  0  0  0
   -4.1680   -2.4671    2.3290 C   0  0  0  0  0  0  0  0  0  0  0  0
   -4.0783   -2.8519    3.6877 C   0  0  0  0  0  0  0  0  0  0  0  0
   -3.2966   -2.2720    4.5803 C   0  0  0  0  0  0  0  0  0  0  0  0
   -2.9248   -3.0505    6.1714 S   0  0  0  0  0  0  0  0  0  0  0  0
   -4.4206   -3.3076    7.0625 N   0  0  0  0  0  0  0  0  0  0  0  0
   -2.2357   -4.3960    5.9324 O   0  0  0  0  0  0  0  0  0  0  0  0
   -1.9988   -2.1398    6.9810 O   0  0  0  0  0  0  0  0  0  0  0  0
   -2.7832   -1.0519    4.2378 C   0  0  0  0  0  0  0  0  0  0  0  0
   -2.9410   -0.5500    2.9685 C   0  0  0  0  0  0  0  0  0  0  0  0
   -1.1090    1.2060    0.0020 C   0  0  0  0  0  0  0  0  0  0  0  0
    0.2750    1.1840    0.0050 C   0  0  0  0  0  0  0  0  0  0  0  0
    2.8673   -0.5130    0.8443 H   0  0  0  0  0  0  0  0  0  0  0  0
    2.8357   -0.4833   -0.9024 H   0  0  0  0  0  0  0  0  0  0  0  0
    2.8429    1.0148   -0.0032 H   0  0  0  0  0  0  0  0  0  0  0  0
    0.7818   -2.1300    0.0045 H   0  0  0  0  0  0  0  0  0  0  0  0
   -1.6438   -2.1281    0.0078 H   0  0  0  0  0  0  0  0  0  0  0  0
   -3.7733    1.0808   -1.8842 H   0  0  0  0  0  0  0  0  0  0  0  0
   -4.5811   -3.0980    1.5699 H   0  0  0  0  0  0  0  0  0  0  0  0
   -4.6862   -3.6695    4.0147 H   0  0  0  0  0  0  0  0  0  0  0  0
   -4.2111   -3.7463    7.9592 H   0  0  0  0  0  0  0  0  0  0  0  0
   -4.8799   -2.4109    7.2218 H   0  0  0  0  0  0  0  0  0  0  0  0
   -2.2509   -0.4798    4.9687 H   0  0  0  0  0  0  0  0  0  0  0  0
   -2.4700    0.3728    2.7010 H   0  0  0  0  0  0  0  0  0  0  0  0
   -1.6368    2.1367    0.0112 H   0  0  0  0  0  0  0  0  0  0  0  0
    0.8088    2.1113    0.0010 H   0  0  0  0  0  0  0  0  0  0  0  0
  1  2  1  0  0  0  0
  1 27  1  0  0  0  0
  1 28  1  0  0  0  0
  1 29  1  0  0  0  0
  2  3  1  0  0  0  0
  2 26  2  0  0  0  0
  3  4  2  0  0  0  0
  3 30  1  0  0  0  0
  4  5  1  0  0  0  0
  4 31  1  0  0  0  0
  5  6  1  0  0  0  0
  5 25  2  0  0  0  0
  6  7  2  0  0  0  0
  6 14  1  0  0  0  0
  7  8  1  0  0  0  0
  7 32  1  0  0  0  0
  8  9  1  0  0  0  0
  8 13  2  0  0  0  0
  9 10  1  0  0  0  0
  9 11  1  0  0  0  0
  9 12  1  0  0  0  0
 13 14  1  0  0  0  0
 14 15  1  0  0  0  0
 15 16  1  0  0  0  0
 15 24  2  0  0  0  0
 16 17  2  0  0  0  0
 16 33  1  0  0  0  0
 17 18  1  0  0  0  0
 17 34  1  0  0  0  0
 18 19  1  0  0  0  0
 18 23  2  0  0  0  0
 19 20  1  0  0  0  0
 19 21  2  0  0  0  0
 19 22  2  0  0  0  0
 20 35  1  0  0  0  0
 20 36  1  0  0  0  0
 23 24  1  0  0  0  0
 23 37  1  0  0  0  0
 24 38  1  0  0  0  0
 25 26  1  0  0  0  0
 25 39  1  0  0  0  0
 26 40  1  0  0  0  0
M  END
