
 OpenBabel09282515193D

 33 34  0  0  0  0  0  0  0  0999 V2000
    1.8540    1.5000   -0.0220 C   0  0  0  0  0  0  0  0  0  0  0  0
    0.5760    0.7050   -0.0100 C   0  0  0  0  0  0  0  0  0  0  0  0
   -0.6430    1.3680    0.0210 C   0  0  0  0  0  0  0  0  0  0  0  0
   -1.8390    0.6730    0.0230 C   0  0  0  0  0  0  0  0  0  0  0  0
   -1.8220   -0.7100   -0.0230 C   0  0  0  0  0  0  0  0  0  0  0  0
   -0.6110   -1.3690   -0.0140 C   0  0  0  0  0  0  0  0  0  0  0  0
   -0.6022   -2.8390   -0.0195 N   0  0  0  0  0  0  0  0  0  0  0  0
    0.6752   -3.5664   -0.0101 C   0  0  0  0  0  0  0  0  0  0  0  0
    0.9812   -4.4236   -1.0542 C   0  0  0  0  0  0  0  0  0  0  0  0
    2.0818   -5.2738   -0.7940 C   0  0  0  0  0  0  0  0  0  0  0  0
    2.9764   -5.0715    0.1561 C   0  0  0  0  0  0  0  0  0  0  0  0
    2.6432   -4.1622    1.1214 C   0  0  0  0  0  0  0  0  0  0  0  0
    1.5151   -3.3869    1.0026 C   0  0  0  0  0  0  0  0  0  0  0  0
    1.2260   -2.3141    2.0398 C   0  0  0  0  0  0  0  0  0  0  0  0
    2.0260   -2.1374    3.0113 O   0  0  0  0  0  0  0  0  0  0  0  0
    0.0619   -1.5092    1.9232 O   0  0  0  0  0  0  0  0  0  0  0  0
    0.5950   -0.6940   -0.0000 C   0  0  0  0  0  0  0  0  0  0  0  0
    1.8910   -1.4740    0.0270 C   0  0  0  0  0  0  0  0  0  0  0  0
    2.4276    1.2664    0.8506 H   0  0  0  0  0  0  0  0  0  0  0  0
    2.4190    1.2538   -0.8967 H   0  0  0  0  0  0  0  0  0  0  0  0
    1.6240    2.5450   -0.0284 H   0  0  0  0  0  0  0  0  0  0  0  0
   -0.6579    2.4377    0.0438 H   0  0  0  0  0  0  0  0  0  0  0  0
   -2.7694    1.2002    0.0598 H   0  0  0  0  0  0  0  0  0  0  0  0
   -2.7380   -1.2615   -0.0651 H   0  0  0  0  0  0  0  0  0  0  0  0
   -1.4825   -3.3542   -0.0298 H   0  0  0  0  0  0  0  0  0  0  0  0
    0.4349   -4.4411   -1.9741 H   0  0  0  0  0  0  0  0  0  0  0  0
    2.1974   -6.1411   -1.4100 H   0  0  0  0  0  0  0  0  0  0  0  0
    3.9116   -5.5911    0.1699 H   0  0  0  0  0  0  0  0  0  0  0  0
    3.2701   -4.0528    1.9816 H   0  0  0  0  0  0  0  0  0  0  0  0
   -0.1283   -0.8033    2.6056 H   0  0  0  0  0  0  0  0  0  0  0  0
    1.9224   -2.0831    0.9061 H   0  0  0  0  0  0  0  0  0  0  0  0
    1.9505   -2.0970   -0.8409 H   0  0  0  0  0  0  0  0  0  0  0  0
    2.7167   -0.7935    0.0349 H   0  0  0  0  0  0  0  0  0  0  0  0
  1  2  1  0  0  0  0
  1 19  1  0  0  0  0
  1 20  1  0  0  0  0
  1 21  1  0  0  0  0
  2  3  1  0  0  0  0
  2 17  2  0  0  0  0
  3  4  2  0  0  0  0
  3 22  1  0  0  0  0
  4  5  1  0  0  0  0
  4 23  1  0  0  0  0
  5  6  2  0  0  0  0
  5 24  1  0  0  0  0
  6  7  1  0  0  0  0
  6 17  1  0  0  0  0
  7  8  1  0  0  0  0
  7 25  1  0  0  0  0
  8  9  1  0  0  0  0
  8 13  2  0  0  0  0
  9 10  2  0  0  0  0
  9 26  1  0  0  0  0
 10 11  1  0  0  0  0
 10 27  1  0  0  0  0
 11 12  2  0  0  0  0
 11 28  1  0  0  0  0
 12 13  1  0  0  0  0
 12 29  1  0  0  0  0
 13 14  1  0  0  0  0
 14 15  2  0  0  0  0
 14 16  1  0  0  0  0
 16 30  1  0  0  0  0
 17 18  1  0  0  0  0
 18 31  1  0  0  0  0
 18 32  1  0  0  0  0
 18 33  1  0  0  0  0
M  END
