
 OpenBabel06052613043D

 59 62  0  0  1  0  0  0  0  0999 V2000
   -0.6588   -0.4660    3.5419 C   0  0  0  0  0  0  0  0  0  0  0  0
   -0.1060   -1.7231    2.8905 C   0  0  0  0  0  0  0  0  0  0  0  0
    1.0616   -1.3471    1.9928 C   0  0  2  0  0  0  0  0  0  0  0  0
    2.1502   -2.3836    2.0879 C   0  0  0  0  0  0  0  0  0  0  0  0
    3.4448   -2.0468    1.9970 N   0  0  0  0  0  0  0  0  0  0  0  0
    4.4616   -3.0620    2.3449 C   0  0  0  0  0  0  0  0  0  0  0  0
    5.2060   -2.5976    3.6023 C   0  0  0  0  0  0  0  0  0  0  0  0
    5.5596   -1.1399    3.4595 C   0  0  0  0  0  0  0  0  0  0  0  0
    4.9889   -0.2946    2.5706 C   0  0  0  0  0  0  0  0  0  0  0  0
    5.5322    0.9544    2.7003 N   0  0  0  0  0  0  0  0  0  0  0  0
    6.4756    0.9474    3.6877 C   0  0  0  0  0  0  0  0  0  0  0  0
    7.3009    1.9476    4.1979 C   0  0  0  0  0  0  0  0  0  0  0  0
    8.1595    1.5892    5.2221 C   0  0  0  0  0  0  0  0  0  0  0  0
    8.2105    0.3008    5.7279 C   0  0  0  0  0  0  0  0  0  0  0  0
    7.4109   -0.7049    5.2437 C   0  0  0  0  0  0  0  0  0  0  0  0
    7.4726   -2.0222    5.7703 O   0  0  0  0  0  0  0  0  0  0  0  0
    8.3769   -2.3246    6.8225 C   0  0  0  0  0  0  0  0  0  0  0  0
    6.5326   -0.3710    4.2077 C   0  0  0  0  0  0  0  0  0  0  0  0
    3.9175   -0.7258    1.5992 C   0  0  2  0  0  0  0  0  0  0  0  0
    2.8272    0.3204    1.4976 C   0  0  0  0  0  0  0  0  0  0  0  0
    1.6553    0.0007    2.4238 C   0  0  2  0  0  0  0  0  0  0  0  0
    2.1431   -0.0869    3.8607 C   0  0  0  0  0  0  0  0  0  0  0  0
    1.2538   -0.3281    4.8616 C   0  0  0  0  0  0  0  0  0  0  0  0
   -0.1237   -0.4979    4.5617 O   0  0  0  0  0  0  0  0  0  0  0  0
   -0.5731   -0.4159    3.2172 C   0  0  0  0  0  0  0  0  0  0  0  0
    3.6177    0.0948    4.1817 C   0  0  0  0  0  0  0  0  0  0  0  0
    4.4484    0.3201    3.2467 O   0  0  0  0  0  0  0  0  0  0  0  0
    4.0670    0.0128    5.5262 O   0  0  0  0  0  0  0  0  0  0  0  0
    5.4446    0.1826    5.8261 C   0  0  0  0  0  0  0  0  0  0  0  0
    0.0976   -0.0183    4.1520 H   0  0  0  0  0  0  0  0  0  0  0  0
   -1.5025   -0.7203    4.1488 H   0  0  0  0  0  0  0  0  0  0  0  0
   -0.9607    0.2256    2.7832 H   0  0  0  0  0  0  0  0  0  0  0  0
    0.1959   -2.4147    3.6491 H   0  0  0  0  0  0  0  0  0  0  0  0
   -0.8624   -2.1709    2.2803 H   0  0  0  0  0  0  0  0  0  0  0  0
    0.7049   -1.2830    0.9860 H   0  0  0  0  0  0  0  0  0  0  0  0
    2.0678   -2.7130    3.1026 H   0  0  0  0  0  0  0  0  0  0  0  0
    1.9655   -3.0889    1.3048 H   0  0  0  0  0  0  0  0  0  0  0  0
    3.9896   -4.0049    2.5268 H   0  0  0  0  0  0  0  0  0  0  0  0
    5.1535   -3.1712    1.5361 H   0  0  0  0  0  0  0  0  0  0  0  0
    4.5812   -2.7333    4.4603 H   0  0  0  0  0  0  0  0  0  0  0  0
    6.1004   -3.1727    3.7215 H   0  0  0  0  0  0  0  0  0  0  0  0
    5.2719    1.7683    2.1434 H   0  0  0  0  0  0  0  0  0  0  0  0
    7.2719    2.9465    3.8154 H   0  0  0  0  0  0  0  0  0  0  0  0
    8.8066    2.3331    5.6377 H   0  0  0  0  0  0  0  0  0  0  0  0
    8.8947    0.0823    6.5210 H   0  0  0  0  0  0  0  0  0  0  0  0
    9.3780   -2.1279    6.5001 H   0  0  0  0  0  0  0  0  0  0  0  0
    8.1503   -1.7165    7.6733 H   0  0  0  0  0  0  0  0  0  0  0  0
    8.2838   -3.3571    7.0872 H   0  0  0  0  0  0  0  0  0  0  0  0
    4.3080   -0.8084    0.6064 H   0  0  0  0  0  0  0  0  0  0  0  0
    2.4655    0.3311    0.4906 H   0  0  0  0  0  0  0  0  0  0  0  0
    3.2333    1.2729    1.7671 H   0  0  0  0  0  0  0  0  0  0  0  0
    0.9135    0.7694    2.3623 H   0  0  0  0  0  0  0  0  0  0  0  0
    1.5924   -0.3899    5.8747 H   0  0  0  0  0  0  0  0  0  0  0  0
   -0.3395    0.5504    2.8214 H   0  0  0  0  0  0  0  0  0  0  0  0
   -0.0865   -1.1681    2.6320 H   0  0  0  0  0  0  0  0  0  0  0  0
   -1.6317   -0.5682    3.1850 H   0  0  0  0  0  0  0  0  0  0  0  0
    6.0153   -0.5656    5.3167 H   0  0  0  0  0  0  0  0  0  0  0  0
    5.7623    1.1529    5.5061 H   0  0  0  0  0  0  0  0  0  0  0  0
    5.5941    0.0883    6.8814 H   0  0  0  0  0  0  0  0  0  0  0  0
  1  2  1  0  0  0  0
  1 30  1  0  0  0  0
  1 31  1  0  0  0  0
  1 32  1  0  0  0  0
  2 33  1  0  0  0  0
  2 34  1  0  0  0  0
  3  4  1  0  0  0  0
  3 21  1  0  0  0  0
  3 35  1  6  0  0  0
  3  2  1  0  0  0  0
  4  5  1  0  0  0  0
  4 36  1  0  0  0  0
  4 37  1  0  0  0  0
  5  6  1  0  0  0  0
  5 19  1  0  0  0  0
  6  7  1  0  0  0  0
  6 38  1  0  0  0  0
  6 39  1  0  0  0  0
  7  8  1  0  0  0  0
  7 40  1  0  0  0  0
  7 41  1  0  0  0  0
  8  9  2  0  0  0  0
  8 18  1  0  0  0  0
  9 10  1  0  0  0  0
  9 19  1  0  0  0  0
 10 11  1  0  0  0  0
 10 42  1  0  0  0  0
 11 12  1  0  0  0  0
 11 18  2  0  0  0  0
 12 13  2  0  0  0  0
 12 43  1  0  0  0  0
 13 14  1  0  0  0  0
 13 44  1  0  0  0  0
 14 15  2  0  0  0  0
 14 45  1  0  0  0  0
 15 16  1  0  0  0  0
 15 18  1  0  0  0  0
 16 17  1  0  0  0  0
 17 46  1  0  0  0  0
 17 47  1  0  0  0  0
 17 48  1  0  0  0  0
 19 20  1  0  0  0  0
 19 49  1  6  0  0  0
 20 21  1  0  0  0  0
 20 50  1  0  0  0  0
 20 51  1  0  0  0  0
 21 52  1  6  0  0  0
 21 22  1  0  0  0  0
 22 23  2  0  0  0  0
 22 26  1  0  0  0  0
 23 24  1  0  0  0  0
 23 53  1  0  0  0  0
 24 25  1  0  0  0  0
 25 54  1  0  0  0  0
 25 55  1  0  0  0  0
 25 56  1  0  0  0  0
 26 27  2  0  0  0  0
 26 28  1  0  0  0  0
 28 29  1  0  0  0  0
 29 57  1  0  0  0  0
 29 58  1  0  0  0  0
 29 59  1  0  0  0  0
M  END
